<?xml version="1.0" encoding="UTF-8"?>

<!-- generated on 2021-11-26 16:32:11 by Eclipse SUMO netedit Version 1.11.0
<configuration xmlns:xsi="http://www.w3.org/2001/XMLSchema-instance" xsi:noNamespaceSchemaLocation="http://sumo.dlr.de/xsd/netconvertConfiguration.xsd">

    <input>
        <sumo-net-file value="/home/duxuyang/networks/HelloWorld.net.xml"/>
    </input>

    <output>
        <output-file value="/home/duxuyang/networks/HelloWorld.net.xml"/>
    </output>

    <processing>
        <geometry.min-radius.fix.railways value="false"/>
        <geometry.max-grade.fix value="false"/>
        <offset.disable-normalization value="true"/>
        <lefthand value="false"/>
    </processing>

    <junctions>
        <no-turnarounds value="true"/>
        <junctions.corner-detail value="5"/>
        <junctions.limit-turn-speed value="5.5"/>
        <rectangular-lane-cut value="false"/>
    </junctions>

    <pedestrian>
        <walkingareas value="false"/>
    </pedestrian>

    <netedit>
        <additional-files value="/home/duxuyang/networks/HelloWorld.poly.xml"/>
    </netedit>

    <report>
        <aggregate-warnings value="5"/>
    </report>

</configuration>
-->

<shapes>
    <poly id="poly_0" type="building" color="1.00,0.00,0.00" fill="1" layer="4" shape="-7.5,7.5 -100,7.5 -100,100 -7.5,100 -7.5,7.5"/>
    <poly id="poly_1" type="building" color="1.00,0.00,0.00" fill="1" layer="4" shape="-7.5,-7.5 -100,-7.5 -100,-100 -7.5,-100 -7.5,-7.5"/>
    <poly id="poly_2" type="building" color="1.00,0.00,0.00" fill="1" layer="4" shape="7.5,-7.5 100,-7.5 100,-100 7.5,-100 7.5,-7.5"/>
    <poly id="poly_3" type="building" color="1.00,0.00,0.00" fill="1" layer="4" shape="7.5,7.5 7.5,100 100,100 100,7.5 7.5,7.5"/>
</shapes>
