<?xml version="1.0" encoding="UTF-8"?>

<!-- generated on 2021-11-26 16:33:59 by Eclipse SUMO netedit Version 1.11.0
-->

<routes xmlns:xsi="http://www.w3.org/2001/XMLSchema-instance" xsi:noNamespaceSchemaLocation="http://sumo.dlr.de/xsd/routes_file.xsd">
    <route edges="gneE0 gneE3" color="yellow" id="route_0"/>
    <route edges="gneE4 gneE7" color="yellow" id="route_1"/>
    <route edges="gneE5 gneE6" color="yellow" id="route_2"/>
    <route edges="gneE1 gneE2" color="yellow" id="route_3"/>
    <flow id="flow_0" begin="0.00" route="route_0" end="200.00" period="6.00"/>
    <flow id="flow_1" begin="0.00" route="route_3" end="200.00" period="6.00"/>
    <flow id="flow_2" begin="0.00" route="route_2" end="200.00" period="6.00"/>
    <flow id="flow_3" begin="0.00" route="route_1" end="200.00" period="6.00"/>
</routes>
